[General]
network = networks.qsdc_network
sim-time-limit = 30s

*.logger.log_filename = "qsdc_starter.log"

*.bufSize = ${bufSize=128}
*.phase1Size = ${phase1Size=32}
*.phase2Size = ${phase2Size=16}
*.requestedPairs = ${requestedPairs=128}

**.alice.qnic*.num_buffer = ${bufSize}
**.alice.qnic_r*.num_buffer = ${bufSize}
**.bob.qnic*.num_buffer = ${bufSize}
**.bob.qnic_r*.num_buffer = ${bufSize}

**.EndToEndConnection = true
**.initial_notification_timing_buffer = 0s

*.alice.is_initiator = true
*.bob.is_initiator = false

*.alice.app.number_of_bellpair = ${requestedPairs}
*.alice.app.bob_addr = 1

*.bob.app.number_of_bellpair = 0
*.bob.app.bob_addr = 0

# Phase 1
*.alice.app.min_pairs_to_start = ${requestedPairs}
*.alice.app.sample_target = ${phase1Size}
*.alice.app.burn_count = 0# int(${bufSize} * 0.10)

# Phase 2
*.alice.app.bell_sample_target = ${phase2Size}

*.bob.app.burn_count = 0
*.alice.app.start_delay = 50us
*.alice.app.poll_interval = 10us
*.alice.app.sample_interval = 10us

*.alice.app.expect_anti = false

**.qrsa.hm.link_tomography = false
**.qrsa.hm.initial_purification = 0
**.qrsa.hm.purification_type = "none"

*.alice.app.payload = "hello"
*.alice.app.max_error_rate = 0.1
*.alice.app.max_bell_error_rate = 0.1

*.alice.app.eve_enabled = false
*.bob.app.eve_enabled = false

# to always intercept, set to 1, for percents, do decimals (e.g. 0.5 for 50%)
*.alice.app.eve_intercept_probability = 1
*.bob.app.eve_intercept_probability = 1

**.memory_x_error_rate = 0
**.memory_y_error_rate = 0
**.memory_z_error_rate = 0
**.memory_energy_excitation_rate = 0
**.memory_energy_relaxation_rate = 0
**.memory_completely_mixed_rate = 0

**.measurement_x_err_rate = 0
**.measurement_y_err_rate = 0
**.measurement_z_err_rate = 0

**.h_gate_err_rate = 0
**.h_gate_x_err_ratio = 0
**.h_gate_y_err_ratio = 0
**.h_gate_z_err_ratio = 0

**.x_gate_err_rate = 0
**.x_gate_x_err_ratio = 0
**.x_gate_y_err_ratio = 0
**.x_gate_z_err_ratio = 0

**.z_gate_err_rate = 0
**.z_gate_x_err_ratio = 0
**.z_gate_y_err_ratio = 0
**.z_gate_z_err_ratio = 0

**.cnot_gate_err_rate = 0