[General]
network = networks.qsdc_network
sim-time-limit = 30s

*.logger.log_filename = "qsdc_starter.log"

# set the buffer size, for our purposes, this is number of bell pairs to eventually be generated
**.alice.qnic*.num_buffer = 64
**.alice.qnic_r*.num_buffer = 64
**.bob.qnic*.num_buffer = 64
**.bob.qnic_r*.num_buffer = 64

# QRSA / entanglement settings
# Accept end-to-end entanglement immediately
**.EndToEndConnection = true
**.initial_notification_timing_buffer = 0s

# Node roles
*.alice.is_initiator = true
*.bob.is_initiator = false

# Alice requests Bell pairs once
# *.alice.app.number_of_bellpair = 64
# *.alice.app.bob_addr = 1

# Bob does nothing (receiver only)
*.bob.app.number_of_bellpair = 0
*.bob.app.bob_addr = 0   

# Sampling behavior
*.alice.app.min_pairs_to_start = 32
*.alice.app.sample_target = 32
*.alice.app.start_delay = 50us
*.alice.app.poll_interval = 10us
*.alice.app.sample_interval = 10us

# Set expected correlation:
*.alice.app.expect_anti = false

# Physics defaults 
**.qrsa.hm.link_tomography = false
**.qrsa.hm.initial_purification = 0
**.qrsa.hm.purification_type = "none"