[General]
network = networks.qsdc_network
sim-time-limit = 30s

*.logger.log_filename = "qsdc_starter.log"

# QRSA / entanglement settings
# Accept end-to-end entanglement immediately
**.EndToEndConnection = true
**.initial_notification_timing_buffer = 0s

# Node roles
*.alice.is_initiator = true
*.bob.is_initiator = false

# Alice requests Bell pairs once
*.alice.app.number_of_bellpair = 16
*.alice.app.bob_addr = 1

# Bob does nothing (receiver only)
*.bob.app.number_of_bellpair = 0
*.bob.app.bob_addr = 0   

# Physics defaults 
**.qrsa.hm.link_tomography = false
**.qrsa.hm.initial_purification = 0
**.qrsa.hm.purification_type = "none"